powerfactory/powerfactory-converter/src/test/resources/MTDC-ElmCoup_TypSwitch.dgs
$$General;ID(a:40);Descr(a:40);Val(a:255)
1;Version;5.0

$$ElmNet;ID(a:40);loc_name(a:80);for_name(a:100);fold_id(p);frnom(r);pDiagram(p)
4;Grid;;;50;15

$$ElmTerm;ID(a:40);loc_name(a:80);fold_id(p);systype(i);uknom(r);unknom(r)
11;central DC terminal;4;1;500;500
12;DC terminal 12;4;1;500;500
13;DC terminal 13;4;1;500;500
14;DC terminal 14;4;1;500;500

$$ElmCoup;ID(a:40);loc_name(a:80);fold_id(p);on_off(i);aUsage(a:4);typ_id(p)
22;DC Disconnector without type;4;1;dct;
23;DC Disconnector with type no R;4;1;dct;53
24;DC Disconnector with type and R;4;1;dct;54

$$StaCubic;ID(a:40);loc_name(a:80);fold_id(p);obj_bus(i);obj_id(p)
32;switch cubicle 32;11;0;22
33;switch cubicle 33;11;0;23
34;switch cubicle 34;11;0;24
42;switch cubicle 42;12;1;22
43;switch cubicle 43;13;1;23
44;switch cubicle 44;14;1;24

$$TypSwitch;ID(a:40);loc_name(a:80);fold_id(p);R_on(r)
53;DC Switch Type no R;4;
54;DC Switch Type R;4;0.01

